--
-- EAGLE WEST FIELD SIMULATION
--
-- Generated from MRST workflow
-- Simulation engine: OPM Flow
-- Date: 2025-08-21 17:09:00
--

RUNSPEC

TITLE
  Eagle West Field Reservoir Simulation
/

DIMENS
  41 41 12 /

OIL
WATER
GAS

METRIC

START
  1 JAN 2024 /

WELLDIMS
  15 20 5 15 /

TABDIMS
  1 1 40 40 2 40 /

GRID

INCLUDE
  'GRID.inc' /

PROPS

INCLUDE
  'PROPS.inc' /
INCLUDE
  'PVT.inc' /

SOLUTION

INCLUDE
  'SOLUTION.inc' /

SUMMARY

FOPR
FWPR
FGPR
FOPT
FWPT
FGPT
FWCT
FGOR
WOPR
/
WWPR
/
WGPR
/
WBHP
/
WWCT
/
WGOR
/

SCHEDULE

INCLUDE
  'SCHEDULE.inc' /

END
